Circuit: * Z:\mnt\Projects\OctaveProjects\WCT_ECG_Project\ltspice\WCT_dengan_Resistansi_Berbeda.asc

Direct Newton iteration for .op point succeeded.

Date: Tue Aug 26 10:37:58 2025
Total elapsed time: 0.153 seconds.

tnom = 27
temp = 27
method = modified trap
totiter = 2085
traniter = 2082
tranpoints = 1042
accept = 1042
rejected = 0
matrix size = 10
fillins = 0
solver = Normal
Matrix Compiler1: 400 bytes object code size  0.3/0.2/[0.2]
Matrix Compiler2: 724 bytes object code size  0.2/0.3/[0.2]

