Circuit: * Z:\mnt\Projects\OctaveProjects\WCT_ECG_Project\ltspice\Wilson_Central_Terminal.asc

Direct Newton iteration for .op point succeeded.

Date: Mon Aug 25 22:09:03 2025
Total elapsed time: 0.217 seconds.

tnom = 27
temp = 27
method = modified trap
totiter = 2085
traniter = 2082
tranpoints = 1042
accept = 1042
rejected = 0
matrix size = 10
fillins = 0
solver = Normal
Matrix Compiler1: 346 bytes object code size  0.4/0.4/[0.3]
Matrix Compiler2: off
